Version 4.1
SHEET 1 900 680
WIRE 448 -160 304 -160
WIRE 448 -96 448 -160
WIRE 304 -64 304 -160
WIRE 448 0 448 -16
WIRE 448 112 448 64
WIRE 448 112 128 112
WIRE 528 112 448 112
WIRE 640 112 608 112
WIRE 816 112 640 112
WIRE 128 128 128 112
WIRE 816 144 816 112
WIRE 448 160 448 112
WIRE 640 160 640 112
WIRE 128 272 128 208
WIRE 448 272 448 224
WIRE 448 272 128 272
WIRE 640 272 640 224
WIRE 640 272 448 272
WIRE 816 272 816 224
WIRE 816 272 640 272
WIRE 448 320 448 272
FLAG 448 320 0
FLAG 304 -64 0
SYMBOL voltage 128 112 R0
WINDOW 123 0 0 Left 0
WINDOW 39 0 0 Left 0
SYMATTR InstName V1
SYMATTR Value SINE(1.6666 2.5 1000)
SYMBOL res 624 96 R90
WINDOW 0 0 56 VBottom 2
WINDOW 3 32 56 VTop 2
SYMATTR InstName R1
SYMATTR Value 1.6K
SYMBOL voltage 448 0 R180
WINDOW 0 24 96 Left 2
WINDOW 3 24 16 Left 2
WINDOW 123 0 0 Left 0
WINDOW 39 0 0 Left 0
SYMATTR InstName V2
SYMATTR Value 3.3
SYMBOL cap 624 160 R0
SYMATTR InstName C1
SYMATTR Value 10nF
SYMBOL res 800 128 R0
SYMATTR InstName RL
SYMATTR Value 100K
SYMBOL DDZ9684 448 32 R270
SYMATTR InstName U1
SYMBOL DDZ9684 448 192 R270
SYMATTR InstName U2
TEXT 88 344 Left 2 !.tran 10ms
