Version 4.1
SHEET 1 900 680
WIRE 448 -192 304 -192
WIRE 448 -128 448 -192
WIRE 304 -96 304 -192
WIRE 448 0 448 -48
WIRE 160 112 128 112
WIRE 272 112 160 112
WIRE 448 112 448 48
WIRE 448 112 352 112
WIRE 640 112 448 112
WIRE 800 112 640 112
WIRE 816 112 800 112
WIRE 128 128 128 112
WIRE 816 144 816 112
WIRE 448 160 448 112
WIRE 640 160 640 112
WIRE 128 272 128 208
WIRE 448 272 448 208
WIRE 448 272 128 272
WIRE 640 272 640 224
WIRE 640 272 448 272
WIRE 816 272 816 224
WIRE 816 272 640 272
WIRE 448 320 448 272
FLAG 448 320 0
FLAG 304 -96 0
FLAG 800 112 Vout
FLAG 160 112 Vin
SYMBOL voltage 128 112 R0
WINDOW 123 0 0 Left 0
WINDOW 39 0 0 Left 0
SYMATTR InstName V1
SYMATTR Value SINE(1.6666 2.5 1000)
SYMBOL res 368 96 R90
WINDOW 0 0 56 VBottom 2
WINDOW 3 32 56 VTop 2
SYMATTR InstName R1
SYMATTR Value 1.6K
SYMBOL voltage 448 -32 R180
WINDOW 0 24 96 Left 2
WINDOW 3 24 16 Left 2
WINDOW 123 0 0 Left 0
WINDOW 39 0 0 Left 0
SYMATTR InstName V2
SYMATTR Value 3.3
SYMBOL cap 624 160 R0
SYMATTR InstName C1
SYMATTR Value 10nF
SYMBOL res 800 128 R0
SYMATTR InstName RL
SYMATTR Value 100K
SYMBOL library\\DDZ9684 448 0 R270
WINDOW 3 6 75 VBottom 2
SYMATTR InstName U3
SYMBOL library\\DDZ9684 448 160 R270
WINDOW 3 14 77 VBottom 2
SYMATTR InstName U4
TEXT 88 344 Left 2 !.tran 10ms
TEXT 96 392 Left 2 !.lib library\\DDZ9684.LIB
TEXT 640 -64 Left 2 ;Vz\nNominal 3.3V\nMin 3.13V\nMax 3.47
