Version 4.1
SHEET 1 880 680
WIRE 160 0 64 0
WIRE 336 0 160 0
WIRE 336 80 336 0
WIRE 160 96 160 80
WIRE 288 96 160 96
WIRE 0 176 -96 176
WIRE 112 176 0 176
WIRE 336 240 336 176
WIRE 0 272 0 256
WIRE 160 272 160 192
WIRE 160 272 0 272
WIRE 0 320 0 272
WIRE 416 320 336 320
FLAG 0 320 0
FLAG -240 272 0
FLAG -240 192 Enable
FLAG -336 272 0
FLAG -336 192 BatteryVoltage
FLAG -96 176 Enable
FLAG 64 0 BatteryVoltage
FLAG 416 320 BatteryMeasurement
FLAG 336 400 0
SYMBOL voltage -336 176 R0
WINDOW 0 -67 44 Left 2
WINDOW 3 -67 72 Left 2
WINDOW 123 0 0 Left 0
WINDOW 39 0 0 Left 0
SYMATTR InstName V1
SYMATTR Value 16
SYMBOL voltage -240 176 R0
WINDOW 0 41 50 Left 2
WINDOW 3 40 73 Left 2
WINDOW 123 0 0 Left 0
WINDOW 39 0 0 Left 0
SYMATTR InstName V2
SYMATTR Value 3.3
SYMBOL res 144 -16 R0
SYMATTR InstName R2
SYMATTR Value 10K
SYMBOL nmos 112 96 R0
SYMATTR InstName M1
SYMATTR Value BSB012N03LX3
SYMBOL pmos 288 176 M180
SYMATTR InstName M3
SYMATTR Value IRF7204
SYMBOL res 320 304 R0
SYMATTR InstName 33K
SYMATTR Value 33K
SYMBOL res 320 224 R0
SYMATTR InstName R3
SYMATTR Value 150K
SYMBOL res -16 160 R0
SYMATTR InstName R1
SYMATTR Value 10K
TEXT -368 352 Left 2 !.tran 25
TEXT -400 424 Left 2 ;Test INPUTS:\nchanged battery voltage from 6V, 16V\nChecked to see enable enables battery measurement circuit on and Off
