Version 4
SHEET 1 8692 680
WIRE 160 0 64 0
WIRE 336 0 160 0
WIRE 336 80 336 0
WIRE 160 96 160 80
WIRE 288 96 160 96
WIRE 0 176 -96 176
WIRE 112 176 0 176
WIRE 336 240 336 176
WIRE 0 272 0 256
WIRE 160 272 160 192
WIRE 160 272 0 272
WIRE 0 320 0 272
WIRE 416 320 336 320
FLAG 0 320 0
FLAG -240 272 0
FLAG -240 192 Enable
FLAG -336 272 0
FLAG -336 192 BatteryVoltage
FLAG -96 176 Enable
FLAG 64 0 BatteryVoltage
FLAG 416 320 BatteryMeasurement
FLAG 336 400 0
SYMBOL voltage -336 176 R0
WINDOW 0 -67 44 Left 2
WINDOW 3 -67 72 Left 2
WINDOW 123 0 0 Left 0
WINDOW 39 0 0 Left 0
SYMATTR InstName V1
SYMATTR Value 16
SYMBOL voltage -240 176 R0
WINDOW 0 41 50 Left 2
WINDOW 3 40 73 Left 2
WINDOW 123 0 0 Left 0
WINDOW 39 0 0 Left 0
SYMATTR InstName V2
SYMATTR Value PULSE(0 3.3 3 0.1u 0.1 1 3)
SYMBOL res 144 -16 R0
SYMATTR InstName R2
SYMATTR Value 10K
SYMBOL nmos 112 96 R0
SYMATTR InstName M1
SYMATTR Value IRLML6246
SYMBOL pmos 288 176 M180
SYMATTR InstName M3
SYMATTR Value Si4542DY_P
SYMBOL res 320 304 R0
SYMATTR InstName 330
SYMATTR Value R4
SYMBOL res 320 224 R0
SYMATTR InstName R3
SYMATTR Value 1.5K
SYMBOL res -16 160 R0
SYMATTR InstName R1
SYMATTR Value 10K
TEXT -368 352 Left 2 !.tran 25
TEXT -400 424 Left 2 ;Test INPUTS:\nchanged battery voltage from 6V, 16V\nChecked to see enable enables battery measurement circuit on and Off
TEXT 728 32 Left 2 ;https://www.digikey.ca/en/products/detail/onsemi/NVTR01P02LT1G/5969313?gclsrc=aw.ds&&utm_adgroup=General&utm_source=google&utm_medium=cpc&utm_campaign=PMax%20Shopping_Product_Zombie%20SKUs&utm_term=&productid=5969313&utm_content=General&utm_id=go_cmp-17855401585_adg-_ad-__dev-c_ext-_prd-5969313_sig-CjwKCAjwq7fABhB2EiwAwk-YbCdzxZ8I_ROXJb3JHufdx-zHWTW_khwVTeU3PeYqFBXyUwEnEgnIlhoCDXMQAvD_BwE&gad_source=1&gbraid=0AAAAADrbLli6YGlW8y5wc6i5rQyT2Z2qc&gclid=CjwKCAjwq7fABhB2EiwAwk-YbCdzxZ8I_ROXJb3JHufdx-zHWTW_khwVTeU3PeYqFBXyUwEnEgnIlhoCDXMQAvD_BwE&gclsrc=aw.ds
TEXT 752 88 Left 2 ;https://www.digikey.ca/en/products/detail/onsemi/NTR4003NT3G/1967271?gclsrc=aw.ds&&utm_adgroup=General&utm_source=google&utm_medium=cpc&utm_campaign=PMax%20Shopping_Product_Zombie%20SKUs&utm_term=&productid=1967271&utm_content=General&utm_id=go_cmp-17855401585_adg-_ad-__dev-c_ext-_prd-1967271_sig-CjwKCAjwq7fABhB2EiwAwk-YbFJqpYQlYIhkgtWqhIxcVob4GPSdEPXc6bIcNIfS9s96qRU90U7eOhoCR2AQAvD_BwE&gad_source=1&gbraid=0AAAAADrbLli6YGlW8y5wc6i5rQyT2Z2qc&gclid=CjwKCAjwq7fABhB2EiwAwk-YbFJqpYQlYIhkgtWqhIxcVob4GPSdEPXc6bIcNIfS9s96qRU90U7eOhoCR2AQAvD_BwE&gclsrc=aw.ds
