Version 4.1
SHEET 1 880 680
WIRE 32 16 0 16
WIRE 224 16 112 16
WIRE 224 64 224 16
WIRE 0 144 0 16
WIRE 0 144 -144 144
WIRE -288 224 -352 224
WIRE -144 224 -208 224
WIRE -48 224 -144 224
WIRE -352 240 -352 224
WIRE 0 272 0 240
WIRE 144 272 0 272
WIRE 0 368 0 352
WIRE 144 368 144 336
WIRE 144 368 0 368
WIRE 0 384 0 368
FLAG 224 64 0
FLAG -352 240 0
FLAG 0 384 0
SYMBOL voltage 16 16 R270
WINDOW 0 32 56 VTop 2
WINDOW 3 -32 56 VBottom 2
WINDOW 123 0 0 Left 0
WINDOW 39 0 0 Left 0
SYMATTR InstName V1
SYMATTR Value 5
SYMBOL pmos -48 144 R0
SYMATTR InstName M1
SYMATTR Value Si7137DP
SYMBOL res -160 128 R0
SYMATTR InstName R1
SYMATTR Value 10k
SYMBOL voltage -192 224 R90
WINDOW 0 -32 56 VBottom 2
WINDOW 3 32 56 VTop 2
WINDOW 123 0 0 Left 0
WINDOW 39 0 0 Left 0
SYMATTR InstName V2
SYMATTR Value PULSE(0 5 2 0.1ns 0.1ns 1 3 3)
SYMBOL res -16 256 R0
SYMATTR InstName R2
SYMATTR Value 43.75
SYMBOL cap 128 272 R0
SYMATTR InstName C1
SYMATTR Value 220µF
TEXT -424 408 Left 2 !.tran 15
