Version 4.1
SHEET 1 1780 772
WIRE 32 16 0 16
WIRE 224 16 112 16
WIRE 224 64 224 16
WIRE 0 144 0 16
WIRE 0 144 -144 144
WIRE -288 224 -352 224
WIRE -144 224 -208 224
WIRE -48 224 -144 224
WIRE -352 240 -352 224
WIRE 1168 256 848 256
WIRE 1264 256 1248 256
WIRE 1312 256 1264 256
WIRE 1584 256 1520 256
WIRE 0 272 0 240
WIRE 80 272 0 272
WIRE 112 272 80 272
WIRE 336 272 336 224
WIRE 496 272 496 224
WIRE 1008 288 848 288
WIRE 928 320 848 320
WIRE 1264 320 1264 256
WIRE 720 352 672 352
WIRE 880 352 848 352
WIRE 0 368 0 352
WIRE 0 368 -16 368
WIRE 112 368 112 352
WIRE 128 368 112 368
WIRE 0 384 0 368
WIRE 112 384 112 368
WIRE 336 384 336 352
WIRE 496 384 496 352
WIRE 1584 384 1584 336
WIRE 672 400 672 352
WIRE 880 400 880 352
WIRE 928 400 880 400
WIRE 112 464 0 464
WIRE 0 496 0 464
FLAG 224 64 0
FLAG -352 240 0
FLAG 0 496 0
FLAG 336 224 Strain_D+
FLAG 496 224 Strain_D-
FLAG 720 256 Strain_D+
FLAG 720 288 Strain_D-
FLAG 1584 384 0
FLAG 80 272 StrainV_PWR
FLAG 1584 176 StrainV_PWR
FLAG 720 320 StrainV_PWR
FLAG 1520 256 Vref
FLAG 1008 288 Vref
FLAG 672 400 0
FLAG 336 384 0
FLAG 496 384 0
FLAG 1264 384 0
FLAG 1312 256 ADC_IN
SYMBOL voltage 16 16 R270
WINDOW 0 32 56 VTop 2
WINDOW 3 -32 56 VBottom 2
WINDOW 123 0 0 Left 0
WINDOW 39 0 0 Left 0
SYMATTR InstName V1
SYMATTR Value 5
SYMBOL pmos -48 144 R0
SYMATTR InstName M1
SYMATTR Value Si7137DP
SYMBOL res -160 128 R0
SYMATTR InstName R1
SYMATTR Value 10k
SYMBOL voltage -192 224 R90
WINDOW 0 -32 56 VBottom 2
WINDOW 3 32 56 VTop 2
WINDOW 123 0 0 Left 0
WINDOW 39 0 0 Left 0
SYMATTR InstName V2
SYMATTR Value PULSE(0 5 2 0.1ns 0.1ns 1 3 3)
SYMBOL res -16 256 R0
SYMATTR InstName R2
SYMATTR Value 350
SYMBOL res 96 256 R0
SYMATTR InstName R3
SYMATTR Value 350
SYMBOL res -16 368 R0
SYMATTR InstName R4
SYMATTR Value 350
SYMBOL res 96 368 R0
SYMATTR InstName R5
SYMATTR Value 350
SYMBOL INA317 784 304 R0
SYMATTR InstName U1
SYMBOL res 912 304 R0
SYMATTR InstName R6
SYMATTR Value 500
SYMBOL res 1568 160 R0
SYMATTR InstName R7
SYMATTR Value 1K
SYMBOL res 1568 240 R0
SYMATTR InstName R8
SYMATTR Value 1K
SYMBOL voltage 336 256 R0
WINDOW 0 20 90 Top 2
WINDOW 3 -75 53 Bottom 2
WINDOW 123 0 0 Left 0
WINDOW 39 0 0 Left 0
SYMATTR InstName V3
SYMATTR Value SINE(2.5 0.001 1K)
SYMBOL voltage 496 256 R0
WINDOW 0 25 89 Top 2
WINDOW 3 -55 45 Bottom 2
WINDOW 123 0 0 Left 0
WINDOW 39 0 0 Left 0
SYMATTR InstName V4
SYMATTR Value 2.5
SYMBOL res 1264 240 R90
WINDOW 0 0 56 VBottom 2
WINDOW 3 32 56 VTop 2
SYMATTR InstName R9
SYMATTR Value 1K
SYMBOL cap 1248 320 R0
SYMATTR InstName C1
SYMATTR Value 10nF
TEXT -424 408 Left 2 !.tran 15
TEXT 552 16 Left 2 !.lib library\\INA317.LIB
