Version 4.1
SHEET 1 2164 1524
WIRE 32 16 0 16
WIRE 224 16 112 16
WIRE 0 48 0 16
WIRE 224 64 224 16
WIRE 0 144 0 48
WIRE 0 144 -144 144
WIRE -288 224 -352 224
WIRE -144 224 -208 224
WIRE -48 224 -144 224
WIRE -352 240 -352 224
WIRE 0 272 0 240
WIRE 0 272 -128 272
WIRE 112 272 0 272
WIRE 208 272 112 272
WIRE 320 272 208 272
WIRE 528 272 320 272
WIRE 640 272 528 272
WIRE 736 272 640 272
WIRE 848 272 736 272
WIRE 1024 272 848 272
WIRE 1136 272 1024 272
WIRE 1232 272 1136 272
WIRE 1344 272 1232 272
WIRE 1552 272 1344 272
WIRE 1664 272 1552 272
WIRE 1760 272 1664 272
WIRE 1872 272 1760 272
WIRE 2064 272 1872 272
WIRE 2064 320 2064 272
WIRE -128 352 -128 272
WIRE 0 384 0 352
WIRE 112 384 112 352
WIRE 208 384 208 352
WIRE 320 384 320 352
WIRE 528 384 528 352
WIRE 640 384 640 352
WIRE 736 384 736 352
WIRE 848 384 848 352
WIRE 1024 384 1024 352
WIRE 1136 384 1136 352
WIRE 1232 384 1232 352
WIRE 1344 384 1344 352
WIRE 1552 384 1552 352
WIRE 1664 384 1664 352
WIRE 1760 384 1760 352
WIRE 1872 384 1872 352
WIRE -128 464 -128 416
WIRE 0 464 -128 464
WIRE 112 464 0 464
WIRE 208 464 112 464
WIRE 320 464 208 464
WIRE 528 464 320 464
WIRE 640 464 528 464
WIRE 736 464 640 464
WIRE 848 464 736 464
WIRE 1024 464 848 464
WIRE 1136 464 1024 464
WIRE 1232 464 1136 464
WIRE 1344 464 1232 464
WIRE 1552 464 1344 464
WIRE 1664 464 1552 464
WIRE 1760 464 1664 464
WIRE 1872 464 1760 464
WIRE 2064 464 2064 400
WIRE 2064 464 1872 464
WIRE 0 496 0 464
WIRE 496 960 176 960
WIRE 592 960 576 960
WIRE 704 960 592 960
WIRE -336 976 -336 928
WIRE -176 976 -176 928
WIRE 336 992 176 992
WIRE 256 1024 176 1024
WIRE 592 1024 592 960
WIRE 48 1056 0 1056
WIRE 208 1056 176 1056
WIRE -336 1088 -336 1056
WIRE -176 1088 -176 1056
WIRE 0 1104 0 1056
WIRE 208 1104 208 1056
WIRE 256 1104 208 1104
WIRE 16 1360 -16 1360
WIRE -272 1376 -384 1376
WIRE -144 1376 -272 1376
WIRE 16 1392 -16 1392
WIRE -144 1408 -176 1408
WIRE 16 1424 -16 1424
WIRE 112 1424 16 1424
WIRE -384 1456 -384 1440
WIRE -272 1456 -384 1456
WIRE -272 1504 -272 1456
WIRE -176 1504 -176 1408
WIRE 16 1504 16 1424
WIRE 16 1504 -176 1504
FLAG 224 64 0
FLAG -352 240 0
FLAG 0 496 0
FLAG -336 928 Strain_D+
FLAG -176 928 Strain_D-
FLAG 48 960 Strain_D+
FLAG 48 992 Strain_D-
FLAG -272 1504 0
FLAG 0 48 StrainV_PWR
FLAG -272 1296 StrainV_PWR
FLAG 48 1024 StrainV_PWR
FLAG 0 1104 0
FLAG -336 1088 0
FLAG -176 1088 0
FLAG 704 960 ADC_IN
FLAG 592 1088 0
FLAG 16 1360 StrainV_PWR
FLAG 16 1392 0
FLAG 336 992 Vref
FLAG 112 1424 Vref
SYMBOL voltage 16 16 R270
WINDOW 0 32 56 VTop 2
WINDOW 3 -32 56 VBottom 2
WINDOW 123 0 0 Left 0
WINDOW 39 0 0 Left 0
SYMATTR InstName V1
SYMATTR Value 5
SYMBOL pmos -48 144 R0
SYMATTR InstName M1
SYMATTR Value Si7137DP
SYMBOL res -160 128 R0
SYMATTR InstName R1
SYMATTR Value 10k
SYMBOL voltage -192 224 R90
WINDOW 0 -32 56 VBottom 2
WINDOW 3 32 56 VTop 2
WINDOW 123 0 0 Left 0
WINDOW 39 0 0 Left 0
SYMATTR InstName V2
SYMATTR Value PULSE(0 3.3 1ms 1us 1us 0 400ms 3)
SYMBOL res -16 256 R0
SYMATTR InstName R2
SYMATTR Value 350
SYMBOL res 96 256 R0
SYMATTR InstName R3
SYMATTR Value 350
SYMBOL res -16 368 R0
SYMATTR InstName R4
SYMATTR Value 350
SYMBOL res 96 368 R0
SYMATTR InstName R5
SYMATTR Value 350
SYMBOL res -288 1360 R0
SYMATTR InstName R7
SYMATTR Value 100K
SYMBOL voltage -336 960 R0
WINDOW 0 20 90 Top 2
WINDOW 3 -1 17 Bottom 2
WINDOW 123 0 0 Left 0
WINDOW 39 0 0 Left 0
SYMATTR InstName V3
SYMATTR Value SINE(2.5 0.015 1K)
SYMBOL voltage -176 960 R0
WINDOW 0 25 89 Top 2
WINDOW 3 -55 45 Bottom 2
WINDOW 123 0 0 Left 0
WINDOW 39 0 0 Left 0
SYMATTR InstName V4
SYMATTR Value 2.5
SYMBOL res 592 944 R90
WINDOW 0 0 56 VBottom 2
WINDOW 3 32 56 VTop 2
SYMATTR InstName R9
SYMATTR Value 1.6K
SYMBOL cap 576 1024 R0
SYMATTR InstName C1
SYMATTR Value 10nF
SYMBOL res -288 1280 R0
SYMATTR InstName R8
SYMATTR Value 200K
SYMBOL library\\TLV9062 -80 1392 R0
SYMATTR InstName U2
SYMBOL cap -144 352 R0
SYMATTR InstName C2
SYMATTR Value 100µF
SYMBOL cap -400 1376 R0
SYMATTR InstName C3
SYMATTR Value 0.1µF
SYMBOL res 192 256 R0
SYMATTR InstName R10
SYMATTR Value 350
SYMBOL res 304 256 R0
SYMATTR InstName R11
SYMATTR Value 350
SYMBOL res 192 368 R0
SYMATTR InstName R12
SYMATTR Value 350
SYMBOL res 304 368 R0
SYMATTR InstName R13
SYMATTR Value 350
SYMBOL res 512 256 R0
SYMATTR InstName R14
SYMATTR Value 350
SYMBOL res 624 256 R0
SYMATTR InstName R15
SYMATTR Value 350
SYMBOL res 512 368 R0
SYMATTR InstName R16
SYMATTR Value 350
SYMBOL res 624 368 R0
SYMATTR InstName R17
SYMATTR Value 350
SYMBOL res 720 256 R0
SYMATTR InstName R18
SYMATTR Value 350
SYMBOL res 832 256 R0
SYMATTR InstName R19
SYMATTR Value 350
SYMBOL res 720 368 R0
SYMATTR InstName R20
SYMATTR Value 350
SYMBOL res 832 368 R0
SYMATTR InstName R21
SYMATTR Value 350
SYMBOL res 1008 256 R0
SYMATTR InstName R22
SYMATTR Value 350
SYMBOL res 1120 256 R0
SYMATTR InstName R23
SYMATTR Value 350
SYMBOL res 1008 368 R0
SYMATTR InstName R24
SYMATTR Value 350
SYMBOL res 1120 368 R0
SYMATTR InstName R25
SYMATTR Value 350
SYMBOL res 1216 256 R0
SYMATTR InstName R26
SYMATTR Value 350
SYMBOL res 1328 256 R0
SYMATTR InstName R27
SYMATTR Value 350
SYMBOL res 1216 368 R0
SYMATTR InstName R28
SYMATTR Value 350
SYMBOL res 1328 368 R0
SYMATTR InstName R29
SYMATTR Value 350
SYMBOL res 1536 256 R0
SYMATTR InstName R30
SYMATTR Value 350
SYMBOL res 1648 256 R0
SYMATTR InstName R31
SYMATTR Value 350
SYMBOL res 1536 368 R0
SYMATTR InstName R32
SYMATTR Value 350
SYMBOL res 1648 368 R0
SYMATTR InstName R33
SYMATTR Value 350
SYMBOL res 1744 256 R0
SYMATTR InstName R34
SYMATTR Value 350
SYMBOL res 1856 256 R0
SYMATTR InstName R35
SYMATTR Value 350
SYMBOL res 1744 368 R0
SYMATTR InstName R36
SYMATTR Value 350
SYMBOL res 1856 368 R0
SYMATTR InstName R37
SYMATTR Value 350
SYMBOL res 240 1008 R0
SYMATTR InstName R6
SYMATTR Value 1K
SYMBOL library\\INA333 112 1008 R0
SYMATTR InstName U1
SYMBOL res 2048 304 R0
SYMATTR InstName R38
SYMATTR Value 1
TEXT -248 656 Left 2 !.lib library\\INA317.LIB
TEXT -256 584 Left 2 !.tran 1
TEXT -248 688 Left 2 !.lib library\\tlv9062.LIB
TEXT -248 624 Left 2 !.lib C:\\Users\\Parry\\Documents\\GitHub\\BCIT-BAJA\\testing\\LTSPICE_SIMS\\library\\INA333.LIB
TEXT -248 752 Left 2 !.lib library\\INA333.LIB
