* GPN: LMR51606YF
*****************************************************************************
* (C) Copyright 2021 Texas Instruments Incorporated. All rights reserved.
*****************************************************************************
** This model is designed as an aid for customers of Texas Instruments.
** TI and its licensors and suppliers make no warranties, either expressed
** or implied, with respect to this model, including the warranties of
** merchantability or fitness for a particular purpose.  The model is
** provided solely on an "as is" basis.  The entire risk as to its quality
** and performance is with the customer
*****************************************************************************
* This model is subject to change without notice. Texas Instruments
* Incorporated is not responsible for updating this model.
*****************************************************************************
* Released by: Texas Instruments Inc.
* Part: LMR51606YF
* Date: 10/27/2023
* Model Type: TRANSIENT
* Simulator: PSPICE
* Simulator Version: 17.4
* Datasheet LIT number: SLUSEY1
* EVM Order Number: LMR51606EVM
* EVM User's Guide: SLUUCP7
* Model Version: 1.00
**************************************************************************
*
* Updates:
*
* Final 1.00
* Release to Web.
*
*****************************************************************************
*
* Model Usage Notes:
*
* A. The following features have been modeled
*   1.  Output Voltage Setting
*   2. fix Frequency 
*   3.  Internal Fixed Soft-Start
*   4.  Minimum ON-Time, Minimum OFF-Time and Frequency Foldback
*   5.  Low-side FET Zero-Crossing
*	6. 	Current Sense and Positive Overcurrent Protection(OCP)
*	7. 	Over Voltage Protection(OVP)
*	8. no  Power Good
*	9.  UVLO Protection
*	10. BOOT functionality
* 	   
*
* B. Features have not been modelled
*	1. Operating Quiescent Current
*   2. Shutdown Current 
*   3. Temperature dependent characteristics
*   4. Steady State
*   5. Ground pins have been tied to 0V internally.Therefore, this model cannot 
*      be used for inverting topologies.
* 
****************************************************************************** 
* source LMR51606YF_TRANS
**$ENCRYPTED_LIB
**$INTERFACE
*$
.SUBCKT LMR51606YF_TRANS BOOT EN FB GND SW VIN  
$CDNENCSTART_ADV2
17f62b1fb318c25603aeb85644ae98a5d179ef807807791f6459efacb9d7ffc37a831b146dc0f06bb1ef275619162e6d8f7ad0dc708bf15ae1a1d5bd0ae623b2
cb878930936605b2fc9d9e53a8335c9a4808324022f313d54e2aa8def7b171e659573883485bfe6d137a920418fe0d0a744a6d9e5a5eea8f5d4a839d9333e1f3
f48d26eaf7205fccc4616e3af8ff55fc330b180be98741e247bdb01781ec88ec74decf62c33768f145c2e1eceff2cf3cd9c2a813193095280476fbc49330d0d2
920822f6de1dd28c02e783f1e50a2407245c0f1ba5905ec1315ca7eab46f283db45df231d957266c1af740b4a663a4a36d7f5b1de7b63bd0ee689e15dac14c85
9aa1852b8f77f1a28d42dfc489b457a9a3c96abf33332407b45ff3f5a5c06e12b3877af998e86d0bfd68e1c25b1990bfe1de7653f72bdda867a86990cb2e8756
fe0f211d5b053e6f813a172122f42cd89492975d45b1865dd25c76ddb1a9fdd0d48aba00923632345adfc7ea5b12283dd95e361346e265fca5b61439a7a93c10
5cb35441dc2041c09b5516a6e71587381707609ef538776a1cd453c5d4d714d70a84c17b8b48652d42b9f2c0e7e286ae8ed92a87cc6d747ac4af35f5301ace19
6250c6e08bf4dc7dcf29f5b726649e0b9e728efc238c3a7ce35c25a2becdc977b517ef950bb1ab0180adcc828d9939a39ba42541dc2e535841915f6e7936e43e
e0490eb12db422b669c2cc14adb915333266a1c9bb530a70ef0de7dcb15679550f11a7708a5f0e9f3b3f8d300ec019e4766da7841df489fd795670f5b01249e0
92d76faa63d15326e77569bef401d9f03d13a00ee0687f039ae78e449e258141c6427a2a4c8e0f1469ff22a1e3f26e22e3339be0dce95fb1f6247826cc0bc110
9aa1852b8f77f1a28d42dfc489b457a9a3c96abf33332407b45ff3f5a5c06e12b3877af998e86d0bfd68e1c25b1990bfe1de7653f72bdda867a86990cb2e8756
b6dad16e5c42530744f894d258672e28da423fa90ae0ab154423926ce8c5e939937e0b949f918a7262561cfbe60f785abb94dccfa863404d8f72d6ee840a49aa
bec384cd59ac5b14fd40c4d2c27a2c0db4310ced68abec87f61e9d7158855323e21d73fc6896a04bd47b4afede69f96e84599846cd712792780d2d82e7d0ab5e
9aa1852b8f77f1a28d42dfc489b457a91baf9718bafbae8dda7320f4af6ee040245c0f1ba5905ec1315ca7eab46f283dbfdf66dbc1f61fb9982bb1effbaa623d
adee201810f89e557b0d74276635d78ec453b6f9fd53b4340069ec9c894d26b17c7928b341078c4d2db12a3ee27fd16721dc74c36b2063d02ee34bbe89278edf
a5b4f82544c6979c930941e0b3be572b33beca84327d1bfa7c6ee3cb2c506082fad90093466abd23732f1da1efd978e0bc40c22b5a13852c1a120e16c1f3012f
33f10d8dfb214317189c6bd8ddc3bda25c2eed845a53015a931541fe4db812f743c606bfebd3be818bcf2418595400611aada94e507bbc6ac2f239438dbb7c5d
962fef6611c7d242454f05005b115404e95b22de03acc1f866a945d79cafea6ecacb58f9a76e3a3094c1f47011e080ccc45bbdbfa87bbedb58908f2ce1892776
8768ec1e9a97e2e73c7fe98f8ce8e10e1707609ef538776a1cd453c5d4d714d70a84c17b8b48652d42b9f2c0e7e286ae8ed92a87cc6d747ac4af35f5301ace19
dd00eea91d9fdfa89bc795b4e70241d46ecdb114775585d9b38e78db10dba14e3dacc8bad128bce61c48ff17cb0ca282015bea1ca572fcdc7657adaffc4db683
944b54a0842bfd5005b70ca1485f51499863a9dc66a86930f2e3565905af0c4374dcd6197611d925d7d9315a1ff12ac00dafa2019ad51386f5b0532eb4c59829
4ac949d5c7e488da5ac2c80b18643097f9a66c0e6b1fb2a8ac6da6dab4ecfb62727ad60a71780dc587432d675edf4b2942a2961618bdd75a01576397b0c796ab
12146c895af27b09aeff33f158d6b8b85edd4e06ccfbb59d02d91b15cb8ffc06f81bed367a7498b3d0096e0e4424fc7d52e6af6dde406f7fcd345843abcddff4
730f646598d72cb4fc02c3f885bc5fd20f9434fb16b7c55dc68fae43b4b5255ccd16a95a9f4fb198ebaa5ac8f8921ec4c0ff68fd9a8e7f11f5300d138d2e3707
86b34fb9b0f1add5307b165975ef7ad75dd93f114d204c12d280dc4ac5982fdadfc24a03c5b82329c68f4dcab85f26e426795fcea14515cbd26261dc27fb1f11
9aa1852b8f77f1a28d42dfc489b457a9a3c96abf33332407b45ff3f5a5c06e12b3877af998e86d0bfd68e1c25b1990bfe1de7653f72bdda867a86990cb2e8756
8272bcfe4823722e128b4b01a5ee7274da423fa90ae0ab154423926ce8c5e9399eb94d77615538c5be5578b3ef222adf0f9be3c470c82806af21e4c983a06d07
1a39b7db8fa627b1c6af818a9c814adb4587b20a295e5074a0da71c3508bea684b130753b7d7460a5f42f4920fffc5e1604db56aae0a9324ed99a23c2ca92d53
c90481ee0af7386efee3fdffc85162c6c6762cfd623e003e68e3bc45ac5c66e0f9a66c0e6b1fb2a8ac6da6dab4ecfb62d109a024b84025ba41c8f5d0099227db
91b77ff3f21f71483753f49158b59168f4f39a91e4ee464c3fa8cbfc62d3b06b2b1df9db23a2d33243504722a6e1ce672f237b442b4dcca27d986be819a93f5e
b9a1c4ba84f62eb6d83143ecbb725427f9a66c0e6b1fb2a8ac6da6dab4ecfb62727ad60a71780dc587432d675edf4b2942a2961618bdd75a01576397b0c796ab
442c2ba46033c1544cb42d6f18315aa84b7df9f6fad6af14addf5ac36694a1527eb7e40ee554c22d681454d95c92d0ed764247d2b08cc87b3e91be4bb8eda4d7
e951cccbea97a5fa55dbea9eec8509437db1b6d6897ddda3060bc09d61a22039be8aeee20cd913d9fde45ef90ce40e9eb28e744fc03b8ffca3f55e2139d537be
9b692af3f21f695ffc6cab0936fab7d36c926bb8b2d43e3182074a44de071396ee6a0d0f9b7da32f1009cf59b3d77aa56fcc3da72f9a108223d37378c105b2b0
fb04deaf8bd6d37300233099af2746faf5d292e871df66a0d3ac010158bf4c294b130753b7d7460a5f42f4920fffc5e1604db56aae0a9324ed99a23c2ca92d53
8dbbb958602553232ee699663985026b9ef4b59b82d27b3718d136702c20e10efad90093466abd23732f1da1efd978e0bc40c22b5a13852c1a120e16c1f3012f
9967b3aa7cb488533799ac9d41ceabc2281654e83b43dc91e2083643abc9f45040b0b2ec4b95285866abca4551ac939818207368bacd5540cc5eff2a8901259d
35b5dceeb30a514b0b8b970ee4dc7ec37eb7e40ee554c22d681454d95c92d0ed7283ad0a614205ca5574329f3237bc0f4cff46cc3c58b909ce9808598d986003
a72666c6d92ad2064689a0292b93290522ea0822bdaba9945a1afe3cf4a2455dae52132cf3c66a27896b46d105e11936001494f158c65ca5fd52a5e21f3512f9
ec14f6bfebec2804f00b4ab5242cb612c453b6f9fd53b4340069ec9c894d26b1245f6d404f7b42122d137a0a77b5a7f9fee0a6632abef8ad890325d94c4224a1
d724ebc532f43c400e32b7354c10e90fa04c9593581c0b5fcb18c013c3c8f3b3e3413021e685b4566f9bad54d6a0d70cdb1751aadeab4af61a14011c2f87709d
00de86051f286cdda573f8fc4825e882b517ef950bb1ab0180adcc828d9939a3fdac6718959f155b568f1bb7076b96eb1adb9ca8bb753739fa06abbe782ffed9
ace4fba388fd573dce426e7a25f96da9cdf602b6bb10a14a3d1bb98482c5e9d30cf197b8b851846819e9f2969ccca958fe10e3122c67edb601556c6e269b1049
b5d9e53a9f66d0405684ca4e8fe0fb77fad90093466abd23732f1da1efd978e07b08f657b0bc9a19ed7f914a993ecf9e60365022925be125a1e3f6054d810cf4
8dbbb958602553232ee699663985026bdcd4844856e7959232f1238d4a2c343fd757b4cf6ca0b9fe82baedb07eb5de8819d490dc93ebcb23527e71cc70d9a410
341c6dae89d096496048ef7f7df3f06cc42ccc8a527eae8b58cb85d05dc767fcaa8e8fc138a587cb5b2bbbef8de0243acc07cf45e5296f540f1ad2f5c7be21e4
d5e7e0d4791941087e8e0c3c5545c5de7eb7e40ee554c22d681454d95c92d0ed7283ad0a614205ca5574329f3237bc0f4cff46cc3c58b909ce9808598d986003
12146c895af27b09aeff33f158d6b8b85edd4e06ccfbb59d02d91b15cb8ffc06f81bed367a7498b3d0096e0e4424fc7d52e6af6dde406f7fcd345843abcddff4
f20a5936d03498bf27a61aac573751f9af6f171b7cdd08db1058ee8699af95182798699718e55b323177dac70441a0c641c72db91f9faf0e5cc9c2deeb0877eb
a986a7dd9b8da172f8ffb836345ac454a97cb8696c85155559439aa61766bfa8fb503e90803c2ccf221ef4dc0e6523792e93d550c5ff22aaa3e8653f00278d99
b7c4f28c7af8cd2eecc0e5a8b3d851372af4b9bae91f700607f5fdb2997e0c55b36104ef1fde8db9d1b8951a5a94ee38bbeaca67906478544efc8c0a09fbe784
163d7167d0610c3abcfe5a4377efa2cdb4310ced68abec87f61e9d7158855323e21d73fc6896a04bd47b4afede69f96e84599846cd712792780d2d82e7d0ab5e
8dbbb958602553232ee699663985026bf27df898a28dba987622e4c27b2d415118da260b86c249e8c39a6cd8675d9411c3396c4e2e9abc38c54956b4e0783bdd
c22b86542378a4f3eb985ea648491366f7bdc67ef4259e7662627bf15f07fa09bbc41c63e42fb1d037ffff2a18a8e0ed3cbed54ec0af0baec39aaea60b416a2e
87e48ff0586063ffeb002936ede1b690245c0f1ba5905ec1315ca7eab46f283db45df231d957266c1af740b4a663a4a36d7f5b1de7b63bd0ee689e15dac14c85
780db60ed4c120378677de8fa52d5a5f18da260b86c249e8c39a6cd8675d94110f73294b6507201e6bca6ba766f5d990eb198ce3805bda124f50de9a080f0bfb
8ddf6fed867faa61d2b3bb58a8450d3daab21cfa3e8163f5aa3c33826307bd7f8299ebb59c7f698f685381675a50c039ea1efea86d5eca63dde9bbb377d2dbe6
203561a03728c799da86be51c988ad94f4f39a91e4ee464c3fa8cbfc62d3b06b3ca5210d50ae9e00ba9b3fd8f8a3523e9c371c7229bafbced65b179a14cb7b0a
955c626301357d9282d4926f1388597cc3c95d157480db4f67ecb996981b5ffd010760425cd981b41de31c224cf7f56b1d638afe68717b14745fcfae3d4c9a5d
2499e8314812f40d24f1860f7a35d723513775e2055d8a69599e62ef8c8abdd218da260b86c249e8c39a6cd8675d9411c3396c4e2e9abc38c54956b4e0783bdd
49dbf73edcea821dec3d328d914b142cc42ccc8a527eae8b58cb85d05dc767fc2510e21d7d908627b73df87bcfc5e42e56b40393d6684833e0d6234fcebb5868
11e8cc6f357818ddc88eb19968e6eed60a7dfc6d572b31efcb6eb167d376c57d8299ebb59c7f698f685381675a50c039ea1efea86d5eca63dde9bbb377d2dbe6
e8d8594357b47683e6453bbde1afb3c73839106f59ab58b465df01f2b452504be7e4f8da844b873a314053819b0e8929700652b6c5446ab0c5624be6724490de
23d145621d75b293b402b5d0eda4528018da260b86c249e8c39a6cd8675d94110f73294b6507201e6bca6ba766f5d990eb198ce3805bda124f50de9a080f0bfb
910301d70f931d569b3b3d67721bb545a2a0863e4638aac400f06f10087706178e6c290abd264d4edcfbbfad943162806d19403e7431e05743b4dc15b38ad011
b4256d8739cf56c442625b73558bea6bc26e98b05173bd8771c80fe78427303240b0b2ec4b95285866abca4551ac939864d49d13e572ec86e6b8b1875de2b155
67bb9fbd22100464eac61e8849598bcbc3c95d157480db4f67ecb996981b5ffd010760425cd981b41de31c224cf7f56b1d638afe68717b14745fcfae3d4c9a5d
d31b3a7dd606bb6f3e04939d10400597b43ea3fc5e76b2d574e934321fff5caddb3d5df248a2766a40fd501ae3ae7c66fc62bc28b219249af51f1d8ee28ce64a
13ddc09a78d111b901ac62126d2114ca85c37aff6cff8f22e7b7c8275fdf042ccac0f9d47304e815768210c09d3fdb4e469d33de85333cfe2f785e852dc34ff9
4543c2521c917765d15e15b7c7e3c343a4705104a4fd50ffa59082a99a61460ff3c7313ae4d123a530f145de28697b6b9c8ade4db819cf90870ecff6427f04bc
9617c02da202bc098ed15e188108740924ce2cae6d08050c2d42a84899be9ae2fad90093466abd23732f1da1efd978e0bc40c22b5a13852c1a120e16c1f3012f
2b87cfc5d45a83b7d16eb39b4594a4253ecdb508ef038f7566841772cf84d22610cbf3af7669c13569a2d7ee2086d390af29c8cc438698601f4e4101430edc44
bb29468ec7bfa2458f65a4d6fb1289353d13a00ee0687f039ae78e449e258141c6427a2a4c8e0f1469ff22a1e3f26e22e3339be0dce95fb1f6247826cc0bc110
910301d70f931d569b3b3d67721bb5453906bbf5a3d3ee1ff156c2ffb06eb72e05a14a52be7a167ec5c99d83a082320bea1efea86d5eca63dde9bbb377d2dbe6
a741089a27d61ee3277ab00905fed548ab94015286c4a3d944d6641c1ed3d2755180797ca0db572b25f57a1d250b3ba09c371c7229bafbced65b179a14cb7b0a
a240b7c6f079b02492739b0582fa5d725dd93f114d204c12d280dc4ac5982fdadfc24a03c5b82329c68f4dcab85f26e426795fcea14515cbd26261dc27fb1f11
780db60ed4c120378677de8fa52d5a5f18da260b86c249e8c39a6cd8675d94110f73294b6507201e6bca6ba766f5d990eb198ce3805bda124f50de9a080f0bfb
11b5b256f6a9443d1acb2c0692396f2aeae5dceb135f209e18141ac20ac315663d5f5757a3b27612f24d821db41b47293c1197c43ff2f51ff87de93d52f5d882
ec29205c7b645cf865f01804762ec395272bf2ef7c68ae5068d87f85fa222ce64b130753b7d7460a5f42f4920fffc5e1604db56aae0a9324ed99a23c2ca92d53
bcc27d6fced46d1411350093daa0b7b7ffe88241dee2b3c721f22a02c5b48b27bbd3fa356b9fc75685a17f18e0e130f7b825200184bd3c6920eab0e30fd73201
bec384cd59ac5b14fd40c4d2c27a2c0db4310ced68abec87f61e9d7158855323e21d73fc6896a04bd47b4afede69f96e84599846cd712792780d2d82e7d0ab5e
9aa1852b8f77f1a28d42dfc489b457a964897040934580150576906b96346fd77eb7e40ee554c22d681454d95c92d0ed764247d2b08cc87b3e91be4bb8eda4d7
cac3dbff71c2e9a3d569896f7704897f3266a1c9bb530a70ef0de7dcb1567955296c593b974596d8b341ad41fd6387ecb1cefded143cc0fe8e4e337069b56202
698cc0351087e6bcd134a40d4f17f677245c0f1ba5905ec1315ca7eab46f283db45df231d957266c1af740b4a663a4a36d7f5b1de7b63bd0ee689e15dac14c85
8dbbb958602553232ee699663985026b9ef4b59b82d27b3718d136702c20e10efad90093466abd23732f1da1efd978e0bc40c22b5a13852c1a120e16c1f3012f
b1aa8d0bf3b09daed188f105a1065432ef6ec6d0ef7330441f460ad1d688b1ac32f8fe5c9689a830540d53f374973027f8983507fc593da9c0941de1ca7e71e0
6199fe0feb39a4d5c402808ea5560636245c0f1ba5905ec1315ca7eab46f283db45df231d957266c1af740b4a663a4a36d7f5b1de7b63bd0ee689e15dac14c85
47655d1589298c3a85394add50fa0d7b7780e429f7ac8f97ca4a274acc6155184b130753b7d7460a5f42f4920fffc5e1604db56aae0a9324ed99a23c2ca92d53
e920c8fa76d6908ad20121a13426b88da97cb8696c85155559439aa61766bfa871548a35f9cc2c5ddd0338337755d3a83d6aa390ff732eb5bd04c0fd3031be3f
e9bf9772654d243d1caea946b0c46ccefad90093466abd23732f1da1efd978e07b08f657b0bc9a19ed7f914a993ecf9e60365022925be125a1e3f6054d810cf4
9214565203ff3e433396f757ae53f354c453b6f9fd53b4340069ec9c894d26b1245f6d404f7b42122d137a0a77b5a7f9fee0a6632abef8ad890325d94c4224a1
d724ebc532f43c400e32b7354c10e90f0b92f35231e3da16d6732ad6c80b119f3168442004f4e41a775e67ae0aad40e25dfc1c37581ccfd18b9223b1e3eb4055
4c7cf630b12cdedfe3d59f624155e78bf9a66c0e6b1fb2a8ac6da6dab4ecfb62727ad60a71780dc587432d675edf4b2942a2961618bdd75a01576397b0c796ab
f0969ce0814de7f631fd8d191293669c41340817663f9a52b9dcf9a855c7b81eaf7c9505abb612345e32a94035cbe2e21fd9f3183ec6249c2445df003b8222b9
e8e1e94e59683f4fdd45f23a07ce72e8ff93a19cfd7b6f36146c6ec9854867c69020a3636c35f2518a64b1335303d27fdb8cd605fd4c3fd08b36b08da3abade9
ecf31b029ec139c38f287d9184f497ae5dd93f114d204c12d280dc4ac5982fdadfc24a03c5b82329c68f4dcab85f26e426795fcea14515cbd26261dc27fb1f11
29543fd499a76935b72d4699d3eb820d04e3c1ba456a6d445a37f0192b0b441e39716d4d5049def82a2a8a21176c95af230c493563343d1ea71d8a31440fd676
86b34fb9b0f1add5307b165975ef7ad75dd93f114d204c12d280dc4ac5982fdadfc24a03c5b82329c68f4dcab85f26e426795fcea14515cbd26261dc27fb1f11
9aa1852b8f77f1a28d42dfc489b457a99bb2b7cc608084bd097a6992f22d99d9b4310ced68abec87f61e9d715885532319d2d788a145a304f4e8e98608bd8f61
96ed7cfde105589f084ec9750010501c3c1e345200421c2cb745c2167231dd8489171d983bfedfad5cd8ba900a332659e6eff5d8dcf5eb01d4128a469d3e0fe6
887040d8646f99be8572a7a6cd32626a925e3af49f4bce4a5a072efe5cbf2a850e424924f5e5e9daa8a200d7813605a9b1b2d3998e941b5f97bfd4925a3c601b
aca9474549fb752f440b26225f9aaf0ab4310ced68abec87f61e9d7158855323e21d73fc6896a04bd47b4afede69f96e84599846cd712792780d2d82e7d0ab5e
86b4b5e4baa7bd7f8e201134fb49400086d57cd247095d5069fc45899e230288f1aadba0264b51d8656eb7f24c83d652e6eff5d8dcf5eb01d4128a469d3e0fe6
4e81f40bbbadc376a657ea433e92cc4b2f63083b7de2e1ae2270f3d548a5a034ce544020f11220d2aee3b4b163f6aa29e16fac06f9fa6eb7e49becd00211b7c6
8630e95e521303e70563505e71482aec9a0e99cf5fa173c7eaefc7063de4927be13eb2ff2afab29acf478f7df743166e41c72db91f9faf0e5cc9c2deeb0877eb
32e44ffab1bf04540f662fbbb5dfeed11a4f87f9660d0c99fd964e10cc8351cad1e0384f99bca1b9fd2acc4951bc5f31e6eff5d8dcf5eb01d4128a469d3e0fe6
73ebfebd098ad64ada5cab650acbea528fb7573f83cb4401fa96f3769bc67ca0b7dfb506bd27480a78a14a8c16ff9b3cf8983507fc593da9c0941de1ca7e71e0
6199fe0feb39a4d5c402808ea5560636245c0f1ba5905ec1315ca7eab46f283db45df231d957266c1af740b4a663a4a36d7f5b1de7b63bd0ee689e15dac14c85
47655d1589298c3a85394add50fa0d7b7780e429f7ac8f97ca4a274acc6155184b130753b7d7460a5f42f4920fffc5e1604db56aae0a9324ed99a23c2ca92d53
949535e551c2faa59b59777643534b2b3788009fb5676ce39fbf457d3f5f1ac14c1335044820c61b7d539819571bfc3d2981bd30e1e64c8325c42917c6a108cc
637c50ad9c38eaf9f010d0d185c0bfe713b6da77a8843caa0bccdb70ac562e65c5a714fa2cc2741b052ba7384ffc3c55e6eff5d8dcf5eb01d4128a469d3e0fe6
72b383be4a470531acbe637281ee802f61b01e14c78c3fd8748e9c60a04777bea5055d26128871f61c7c59c4aee015dcb82c6f82c2b2a31c8539378ed3e2117b
02dbe7cd8c8cee0a77c3e0a4c1bd17a8b3877af998e86d0bfd68e1c25b1990bf169f016279861f7cb14f5956c0cb2803475bbaab7aaf649ae898188f0a855708
1b68899bf30e61831de31d06c5f4ac34f472417a4f22ff820705baf78cff41767c7928b341078c4d2db12a3ee27fd16740c89e49e6d46a131cd6e6fcfcb761a3
a5b4f82544c6979c930941e0b3be572bb01970ad80acafa47c448f82d1a2ea81fad90093466abd23732f1da1efd978e0bc40c22b5a13852c1a120e16c1f3012f
44e2599de4a878c6315b155b1595dbc7720aaaf8524a4bba7f194097baad7fe0a88f5a269369b2f59b9023cee40ef6edb3bd626f94d5be9103e5e48030dd5684
5991044abb9527fc40f3ffd46b185a3b12cf2c9f26e0a35d792d2419bbe614d567d6eb10641bcb420556684f55129a81a60ec68fd4273665e968567aebd0084f
4c0632aea10322cd8ccce9ce461bc0316ecdb114775585d9b38e78db10dba14ecc8e872614b84bc255c5af5990ae4ba229d11e9816564f7b47580cec85cea45a
4d2a0e6ac009683f60a84e95c062470a0f9434fb16b7c55dc68fae43b4b5255cc245744ee117142ae806238f2f059a6dd6bd7329f6a03361aa8c320e92bc0909
fb04deaf8bd6d37300233099af2746faf5d292e871df66a0d3ac010158bf4c294b130753b7d7460a5f42f4920fffc5e1604db56aae0a9324ed99a23c2ca92d53
8dbbb958602553232ee699663985026b9ef4b59b82d27b3718d136702c20e10efad90093466abd23732f1da1efd978e0bc40c22b5a13852c1a120e16c1f3012f
048a3c19baf329d7bb5ddd31a9dbc1f5a93165c0b58e7e320a8fae18cd45f115f9a66c0e6b1fb2a8ac6da6dab4ecfb62d109a024b84025ba41c8f5d0099227db
3fc1e4ca0b0ae6476fc88c9dc31092ea9fbc4d0f84654be79617702d8d960010e86f48e26cdb2435ccd179a5e5a176d6e09b30dccd851801933ff6e580f5a472
d11c1f9eb5572161cc24971de42beb7ea6e6b3027a459d569fe3e59c353c7d36b68abf7c627d7eec07e12919910bbeb4d3b956349e072d66ee02416d0182a130
47c2234b0a69ef047439240b1dff40a97e45c359852debd873064538c1bcb6d94b130753b7d7460a5f42f4920fffc5e1604db56aae0a9324ed99a23c2ca92d53
9aa1852b8f77f1a28d42dfc489b457a964897040934580150576906b96346fd77eb7e40ee554c22d681454d95c92d0ed764247d2b08cc87b3e91be4bb8eda4d7
507076b8397a72ad44bbfb60b977c62017cf265dd92ad779942820df7111801f192e80c48957983686b32c0c30b632969ba42541dc2e535841915f6e7936e43e
53ab816951b8952f0d1c4909493a28c770d27770e2345c76e40f6ed8f9ed12d3538475620e3836a07a112198dfe5b07dea24a8319591b4c4e75d1d39ae9b3e5e
a96ba3ff224e05a49304539c01f3fdd15dd93f114d204c12d280dc4ac5982fdadfc24a03c5b82329c68f4dcab85f26e426795fcea14515cbd26261dc27fb1f11
c90481ee0af7386efee3fdffc85162c614c12252657b29270f96fa05e8c9929918da260b86c249e8c39a6cd8675d9411c3396c4e2e9abc38c54956b4e0783bdd
b20be5facc0e106a812ea27f6d9abfd90b876314bb46cdb84a123d4e28a55a5b0623173f206745e32c95cb082e648fcfd606bce99ad63e4f547e62b1cadf4611
163d7167d0610c3abcfe5a4377efa2cdb4310ced68abec87f61e9d7158855323e21d73fc6896a04bd47b4afede69f96e84599846cd712792780d2d82e7d0ab5e
8dbbb958602553232ee699663985026b9ef4b59b82d27b3718d136702c20e10efad90093466abd23732f1da1efd978e0bc40c22b5a13852c1a120e16c1f3012f
dc0f326c331f74df3d345aa5bd52963240ccac2e9d6062d95f311d4224eda6dfbd61ec7c9784653a8604819730b871fc58ba5be4a8835e6b130c12ada26abd82
26cd7b03ff598353c1db4d055b2a16219bf97f9705d0c31b3080fab29076fcacb82ff1a9f0234284a846cc9a60fdb67c76cbcbdcdc7554d3d8922cc0fd46d5af
12b51055e3a14f66ca5c8ada937c18b25530325ded7761c092b177bc91ceeb0dcf6b2f711e733dce07a56ce40f259d081023287508a499a8f3a6782a13c6bccd
01e5b74784dbe6f54b2a8b511911b8541707609ef538776a1cd453c5d4d714d70a84c17b8b48652d42b9f2c0e7e286ae8ed92a87cc6d747ac4af35f5301ace19
47655d1589298c3a85394add50fa0d7b7780e429f7ac8f97ca4a274acc6155184b130753b7d7460a5f42f4920fffc5e1604db56aae0a9324ed99a23c2ca92d53
764865ea60f6229f106557d514a06267c99e4e61acd2cb4a917cfee02a4b0a9eb1a688212931b1370f003bcd515cfe23b3811e69c074c030334868011da0aa7a
b517ef950bb1ab0180adcc828d9939a3fdac6718959f155b568f1bb7076b96eb34c3828c80b5a4728b4b2c334597da3ffec3058f763651086d2d51e4fc3602af
aae078e1cd9b8fa6c67c966c85b5bfa523c519db7888cdcc50c14c5e8840688819a7d06e826a07b5e463d4494ea367e3506ba68e36f70c01efc066563baae065
8fbe0e10be03d6234dcaf7f95846395629d58d101181b4488c2256d1ce6cd746c3c95d157480db4f67ecb996981b5ffd95637a7974ee924ec07939d8cb6bea2b
e05fcf26232d48162e76b1c11e962ddafa05cb247db431fd0342a91abb2487a2245c0f1ba5905ec1315ca7eab46f283dbfdf66dbc1f61fb9982bb1effbaa623d
3485de2b74e24b4cff75d04526f18361be4717cd744a4a15a28a4bc4f087cdf26733f3febdc432d59682db541bdce1d341c72db91f9faf0e5cc9c2deeb0877eb
f0b96fff2f97048bc5c741d03395554ff7fd5199f750983e4ce15c35bf35e87b245c0f1ba5905ec1315ca7eab46f283dbfdf66dbc1f61fb9982bb1effbaa623d
2c0dbeae8446da1a34e0460a0155b045718c872f4770d8be372110d8e1fe76c0c3c95d157480db4f67ecb996981b5ffd95637a7974ee924ec07939d8cb6bea2b
9f991471d5f84bb76d542a8926bb5de091b2f354a024bc65859782774fafceb1272bf2ef7c68ae5068d87f85fa222ce69ea99f114b2793b67497fbb73617a89e
39bc302d79cfc49b960ce11c0b60ba6f97fd647dd9e364250b032c114b7cf29418da260b86c249e8c39a6cd8675d9411c3396c4e2e9abc38c54956b4e0783bdd
acc98c7d1cbe03fa3e36ced8f28c1c7927d61c04ad07b3c2f9864df2da942699b4310ced68abec87f61e9d715885532319d2d788a145a304f4e8e98608bd8f61
201814650d4c64046d5738f54cb80bbf1fc3bcd07d61d970743fde768717cbdae41d348d34ef1f6a47634ff5168a1b74008c7bc3c39dcb981ec43cdac3e72527
bd665507448c518577c3312bf7f028fd1707609ef538776a1cd453c5d4d714d70a84c17b8b48652d42b9f2c0e7e286ae8ed92a87cc6d747ac4af35f5301ace19
4839686ba109d2a2e37788b3c11bc4a19ce209bee263d7d0dd682ff70d92a79ef9a66c0e6b1fb2a8ac6da6dab4ecfb62d109a024b84025ba41c8f5d0099227db
56cf9b7c50abb379b0b8491ac8932d91de00e229a409b0d30c4a65fae915cf083ab87de8df95f39d6dbfcb549aceada8d3977e691bddb851b99630e8414fc91a
521bdfed06104ca2b0fc52ed7bbc6a9621a9e011b5a4325f12e3066ca76805af55b9255f6b89863d7de5b5696006dbfb104ea2dace5d59615c0bb99f9e979b1a
0aafd2d027cd79a9104d8339a570fceebbec32135694e006b0f9f1898e416e6500d4e9bc312ed2c289e2050d6b6bd6546321a4e887856c8a38242690185ff623
5f74ccaee7006cd25a54b5332118cabb7df2755d5729e65fe3e687e8a4456d4a4da40b8abc025c784b405128d5d2dea2f9bfcb082950b23c37b0f68e337f2fbf
7bbd8873b791d181f5b6734969ad985d5dd93f114d204c12d280dc4ac5982fdadfc24a03c5b82329c68f4dcab85f26e426795fcea14515cbd26261dc27fb1f11
318f18e47670df3a61537d1d13bf9492d9a9202f15e269bc31d4b235f3c685f8164b1ad833de9dec74512fbcef7b46cfcc4b4f5fdd98f7d9d7d23e33924d0fc7
2555d8453349177961725650e7aea0cd3d13a00ee0687f039ae78e449e258141c6427a2a4c8e0f1469ff22a1e3f26e22e3339be0dce95fb1f6247826cc0bc110
a88ed8236e139eb4f52c64fc39af1e3c057cf6ed6f2ccc6ff1126830272cf5588c00925bd761373824201e3326883e92b1b12e21143e272ef5f3a729b027bc69
91577d72757e6fe1fd42dc8750beb841f9a66c0e6b1fb2a8ac6da6dab4ecfb62727ad60a71780dc587432d675edf4b2942a2961618bdd75a01576397b0c796ab
e170ae8bbcbd2b445eac9ad9c5853f94373253583cc1131e0e809eacc0a8faee5dd93f114d204c12d280dc4ac5982fda57a4d94b77d60ba3a77bf737081b83a5
5db7f7540b1b78a75eb2098b01fd6a8402225439bb8f1491e62e4226efdeca87782601ed0604a97af5677598ec73f786001494f158c65ca5fd52a5e21f3512f9
1791229051368c5c2560c69eebdb07f26f34908f7967ec136519f61b67c9f8453d13a00ee0687f039ae78e449e258141ecd5ad43d02c827ea9eb2b605534885e
24575a9149019c1176a62a600d08e88a858882be1a66498b9e3923d2470f5481e41d348d34ef1f6a47634ff5168a1b7405edef60091d8b013a8ad77a1ea10fd3
4f6179ca19c5e9d23c03093e11f54d683d13a00ee0687f039ae78e449e258141c6427a2a4c8e0f1469ff22a1e3f26e22e3339be0dce95fb1f6247826cc0bc110
f442da3b19b79d5993fac43b3fa89120c5cdd89da170864aa7d5f44d3234da1012cf2c9f26e0a35d792d2419bbe614d519f3beaf2f5ed1c22c792d60ca81f74d
81ff8290a03073b30902be083e7ab79ea7e77bf3e4306e5ed3a2730ca4407f10141267a5e9379213e78a345071c6650c9ba42541dc2e535841915f6e7936e43e
f74bae388660e81fe30d617abc3636b07ccd6fafab3a4c6ab0f792835765645c7eee3f80d589e34bc6b2692454fecff28a544954c51370ab498aa1748a73a3bd
c5509b48ae466f28bb8e729977113e92c1fd87670312907d401965c5ab036cf6fa9438a779f4e9f1c7eecb14c4e0267f39d92a43e014b233f1cf5043c6591097
8167bdf42e77a2ad33d37f96661961238fbaae50cb217230ce257d7274150489b360ac9b4cbe9cbf8af24fc7a2fcea2870078c4015dbc70d8c6b1d43e353eabe
45b6837fa5e186a58de5a5488ddc1f363c601a200e79f704353ddfef65a968304b130753b7d7460a5f42f4920fffc5e1604db56aae0a9324ed99a23c2ca92d53
c010ee343158e368f421e5c9e6ed82717b59be13339791326e30ecec151e3c9f18da260b86c249e8c39a6cd8675d9411c3396c4e2e9abc38c54956b4e0783bdd
f76bd6e1baabced2fea8406be009d8fc130468a99237e38e4d60ca8d3fe478edc9cb340f73a3113823253d3e63f84f13e09b30dccd851801933ff6e580f5a472
f1a7f3a30cfc68a5eeb3b0b2e855472b077a0b38193dfc3b1e5fde1981361256608ba0e8c0cb447ff7e42f603ddd02fb407bb6649e473daf248b19b6d7154fad
0f91b3e9bbc329d4c98da585dc4e505fb4310ced68abec87f61e9d7158855323e21d73fc6896a04bd47b4afede69f96e84599846cd712792780d2d82e7d0ab5e
89f861cfad77dae8db4a1a020554a10af227c69b804c13c5ee185794c8620d81717333e944feb660b9530cab82d2f64eea1efea86d5eca63dde9bbb377d2dbe6
b479e2168bc9d52148b045da7a22b0d76da1faf983385f849e44382808d0a8c312010240a97d28fea96756cd8c6cba10e83d15393ec63ae20657e7cf6ce19b9f
929f1f8add8f41e84bd90bae2422af2a2002485a79010ac5dfa4da49e56c65084dbe37129c1720d46a40119a1687d0f88db64a32ffa41434128ebc8e54326384
29c9d28a1fb47f72cb60d886c1616a52fad90093466abd23732f1da1efd978e07b08f657b0bc9a19ed7f914a993ecf9e60365022925be125a1e3f6054d810cf4
c99b8e8933c308f2fd34311aa00258e4fad90093466abd23732f1da1efd978e07b08f657b0bc9a19ed7f914a993ecf9e60365022925be125a1e3f6054d810cf4
acadab021a5c03ea73492ae07a4ddc0cf3ea94b5baf39ed4c518367bb8c0ed772bdc97f85642ec2d5afca563ad8b59040989c0af464cfcd3e92e57f5e2eda927
16b66822f7acff7043a9719af8f482713077cbd667e7b8016eb4f60b5fcef2ee9fd06019bdc258c891b4b5e8d857c9f004aac312d2a81a0fdca854e1d933f8c9
e566447c26a2c1246f52c43dc9c0315ab3877af998e86d0bfd68e1c25b1990bf169f016279861f7cb14f5956c0cb2803475bbaab7aaf649ae898188f0a855708
a7c1398b23deb0c11b7bfb8623835f9d39112bbccd7954e124e44a6154f0f7165b7a2551d6862ef23f94d22ce069b0109ba42541dc2e535841915f6e7936e43e
7f00d90489ce647d4facfcee67f1d39df3ea94b5baf39ed4c518367bb8c0ed77e41d348d34ef1f6a47634ff5168a1b7405edef60091d8b013a8ad77a1ea10fd3
6e4d2163b2cac8b2fb3fa8efb90cda5d3d13a00ee0687f039ae78e449e258141c6427a2a4c8e0f1469ff22a1e3f26e22e3339be0dce95fb1f6247826cc0bc110
1dea8ea31a60e83b631ddc31a0469135c5cdd89da170864aa7d5f44d3234da1012cf2c9f26e0a35d792d2419bbe614d519f3beaf2f5ed1c22c792d60ca81f74d
98880090a8b944265207df7f63e67f4495cf078052c5b553a72a105e234668e14bc3a192e985a7b06e2f0de60e897560edf696be08b1a971a7a468a3f404dc40
c6c9e33ce5b895326500a0cb066f8b11245c0f1ba5905ec1315ca7eab46f283db45df231d957266c1af740b4a663a4a36d7f5b1de7b63bd0ee689e15dac14c85
8dbbb958602553232ee699663985026b9ef4b59b82d27b3718d136702c20e10efad90093466abd23732f1da1efd978e0bc40c22b5a13852c1a120e16c1f3012f
553046dd61cd94973d0e4fcab50b8cd9f244ce7ccece44dc27b81776f2f7ca4d256bbf12b34793ebdd020d77ff6f18b7751297eff53acb6ba8f0214f850473fc
f4b1464de8a2855e7b9d23abcb881e66000435ec28e35de71cd73df63c577dbc9d50c556798f9f7d52de3638d666fa1e8f12195a94a26406ebe6d5c993de5e7f
5affff53573614460e4862aacf069d070ee65650968c4ab33834cf64a29b50e7f7241f3e1ad15beb1610f0bad98c48d4adaf9ed1fc5517dc9cf944c93fa1299a
9debca255c969982ea8becd1e4650eab4f08301433e62784925707438cb920804b130753b7d7460a5f42f4920fffc5e1604db56aae0a9324ed99a23c2ca92d53
d37b484f53bbc55b5bcee6cf26ff0b61282a6d214491739832368d363e5e37895dd93f114d204c12d280dc4ac5982fda57a4d94b77d60ba3a77bf737081b83a5
ef1cc51e07cfb4d77ef7c879d39375b22af5171e9e6b39505677100fec1fa5b659abb0ad947dddb8154312a144b57a9d9eb69e6b59c58f879a3ed3be9133cc31
d9020900eea96fb2f75833d1d2e2aeeffad90093466abd23732f1da1efd978e07b08f657b0bc9a19ed7f914a993ecf9e60365022925be125a1e3f6054d810cf4
0dcc8387ff41230cd152141a3d8b925c74a1bae83e4aeba89c41916c0c3d438a9b4a4b4689497f9930e2cb10a274062708a36e60141210e8883b6d851a7e594b
e694faa63d1e282520eb32c08b42abd6c3c95d157480db4f67ecb996981b5ffd010760425cd981b41de31c224cf7f56b1d638afe68717b14745fcfae3d4c9a5d
a9b18ccffb28daa5f0f3b5fb834da6e5f49c4c239ec9bfa5a3df97c88b653b1ff4d001df5a7f86aed4b3bc004038213fc53d23ad8a067fbb1c7c0420e4e2333a
d15db4b320997afbbff4122525f06454fad90093466abd23732f1da1efd978e07b08f657b0bc9a19ed7f914a993ecf9e60365022925be125a1e3f6054d810cf4
53374cb6747c478004f3a20d77f4f44f169b2db3aedc08448cf993631962c6e39a2c1396c3347fee32e6c4b52487db7e5091e943095d145ae40ebefd5c3c1d3b
4b7df9f6fad6af14addf5ac36694a1527eb7e40ee554c22d681454d95c92d0ed7283ad0a614205ca5574329f3237bc0f4cff46cc3c58b909ce9808598d986003
3538def6aa18d955027997055a57ae61deb9bb27252586d5e449c0d23b818d96485777baedf4f31ff1771a7c3e81fe71f2337d54b503662c8ae452e157c1d4ef
bbbdce9f3ce58be2e501c51572ba98853d13a00ee0687f039ae78e449e258141c6427a2a4c8e0f1469ff22a1e3f26e22e3339be0dce95fb1f6247826cc0bc110
d1e616faa206a32b776276ca1dd321179df191a6c9c28dd7fc8060e6a93463428f992f9a2c8068bf2017c21db2cb9391dac35d154e82432b3117ed4754dc1530
073d24607f4bb7016713cf9508414f7eb364af38ea06b9fb09446920a89765c60e6a6a155d383609e223272bcc3024f99ba42541dc2e535841915f6e7936e43e
7f8985a80ee4614642234011a6ace6f602c261acc456f5c92f746b8f7a065e0e12337eec6ce8cb3050487117d709463d3f9201f803909786d4f9862169ef68e5
ab853600d680f2732c981c30b42ad5e1245c0f1ba5905ec1315ca7eab46f283db45df231d957266c1af740b4a663a4a36d7f5b1de7b63bd0ee689e15dac14c85
c99b8e8933c308f2fd34311aa00258e4fad90093466abd23732f1da1efd978e07b08f657b0bc9a19ed7f914a993ecf9e60365022925be125a1e3f6054d810cf4
1ef8de8ff99345c19833bdf06485e6489ff2eb5d0e94d9a388ee7020827334aefacdc32dfc4b4913ee11105a3d7f0775e32fa7693fe7d495897c273f78c88792